data_MUNDOQ_raw
_audit_creation_date              2021-05-29
_audit_creation_method            'Materials Studio'
_symmetry_space_group_name_H-M    'P1'
_symmetry_Int_Tables_number       1
_symmetry_cell_setting            triclinic
loop_
_symmetry_equiv_pos_as_xyz
  x,y,z
_cell_length_a                    28.1350
_cell_length_b                    28.1350
_cell_length_c                    19.2000
_cell_angle_alpha                 90.0000
_cell_angle_beta                  90.0000
_cell_angle_gamma                 120.0000
loop_
_atom_site_label
_atom_site_type_symbol
_atom_site_fract_x
_atom_site_fract_y
_atom_site_fract_z
_atom_site_U_iso_or_equiv
_atom_site_adp_type
_atom_site_occupancy
I1     I     0.22853   0.59748   0.42381   0.08229  Uani   1.00
Cu2    Cu    0.29146   0.68693   0.49809   0.06673  Uani   1.00
O3     O     0.21510   0.83650   0.67600   0.04411  Uani   1.00
O4     O     0.29420   0.83420   0.67910   0.05200  Uani   1.00
O5     O     0.95180   0.67700   0.32040   0.05467  Uani   1.00
O6     O     0.94690   0.59440   0.31970   0.05778  Uani   1.00
N7     N     0.24230   0.71600   0.52900   0.05778  Uani   1.00
C8     C     0.25670   0.75300   0.58170   0.04856  Uani   1.00
H9     H     0.28840   0.76210   0.60700   0.05900  Uiso   1.00
C10    C     0.22640   0.77780   0.59950   0.03933  Uani   1.00
C11    C     0.17650   0.76120   0.56380   0.04256  Uani   1.00
H12    H     0.15520   0.77710   0.57420   0.05100  Uiso   1.00
C13    C     0.16080   0.72300   0.51580   0.04911  Uani   1.00
C14    C     0.19460   0.70280   0.49480   0.06878  Uani   1.00
H15    H     0.18450   0.67960   0.45640   0.08300  Uiso   1.00
C16    C     0.24560   0.82020   0.65580   0.04278  Uani   1.00
C17    C     0.10900   0.70200   0.47160   0.06322  Uani   1.00
C18    C     0.08920   0.73620   0.45220   0.07878  Uani   1.00
H19    H     0.10680   0.77240   0.46760   0.09500  Uiso   1.00
C20    C     0.04290   0.71670   0.40970   0.06344  Uani   1.00
H21    H     0.03050   0.74040   0.39610   0.07600  Uiso   1.00
C22    C     0.01530   0.66330   0.38770   0.05656  Uani   1.00
C23    C     0.03250   0.62930   0.40820   0.05878  Uani   1.00
H24    H     0.01270   0.59260   0.39530   0.07000  Uiso   1.00
C25    C     0.07960   0.64750   0.44880   0.07333  Uani   1.00
H26    H     0.09160   0.62320   0.46090   0.08700  Uiso   1.00
C27    C     0.96570   0.64260   0.33840   0.05333  Uani   1.00
I28    I     0.40252   0.63105   0.42381   0.08229  Uani   1.00
Cu29   Cu    0.31307   0.60453   0.49809   0.06673  Uani   1.00
O30    O     0.16350   0.37860   0.67600   0.04411  Uani   1.00
O31    O     0.16580   0.46000   0.67910   0.05200  Uani   1.00
O32    O     0.32300   0.27480   0.32040   0.05467  Uani   1.00
O33    O     0.40560   0.35250   0.31970   0.05778  Uani   1.00
N34    N     0.28400   0.52630   0.52900   0.05778  Uani   1.00
C35    C     0.24700   0.50370   0.58170   0.04856  Uani   1.00
H36    H     0.23790   0.52630   0.60700   0.05900  Uiso   1.00
C37    C     0.22220   0.44860   0.59950   0.03933  Uani   1.00
C38    C     0.23880   0.41530   0.56380   0.04256  Uani   1.00
H39    H     0.22290   0.37810   0.57420   0.05100  Uiso   1.00
C40    C     0.27700   0.43780   0.51580   0.04911  Uani   1.00
C41    C     0.29720   0.49180   0.49480   0.06878  Uani   1.00
H42    H     0.32040   0.50490   0.45640   0.08300  Uiso   1.00
C43    C     0.17980   0.42540   0.65580   0.04278  Uani   1.00
C44    C     0.29800   0.40700   0.47160   0.06322  Uani   1.00
C45    C     0.26380   0.35300   0.45220   0.07878  Uani   1.00
H46    H     0.22760   0.33440   0.46760   0.09500  Uiso   1.00
C47    C     0.28330   0.32620   0.40970   0.06344  Uani   1.00
H48    H     0.25960   0.29010   0.39610   0.07600  Uiso   1.00
C49    C     0.33670   0.35200   0.38770   0.05656  Uani   1.00
C50    C     0.37070   0.40320   0.40820   0.05878  Uani   1.00
H51    H     0.40740   0.42010   0.39530   0.07000  Uiso   1.00
C52    C     0.35250   0.43210   0.44880   0.07333  Uani   1.00
H53    H     0.37680   0.46840   0.46090   0.08700  Uiso   1.00
C54    C     0.35740   0.32310   0.33840   0.05333  Uani   1.00
I55    I     0.36895   0.77147   0.42381   0.08229  Uani   1.00
Cu56   Cu    0.39547   0.70854   0.49809   0.06673  Uani   1.00
O57    O     0.62140   0.78490   0.67600   0.04411  Uani   1.00
O58    O     0.54000   0.70580   0.67910   0.05200  Uani   1.00
O59    O     0.72520   0.04820   0.32040   0.05467  Uani   1.00
O60    O     0.64750   0.05310   0.31970   0.05778  Uani   1.00
N61    N     0.47370   0.75770   0.52900   0.05778  Uani   1.00
C62    C     0.49630   0.74330   0.58170   0.04856  Uani   1.00
H63    H     0.47370   0.71160   0.60700   0.05900  Uiso   1.00
C64    C     0.55140   0.77360   0.59950   0.03933  Uani   1.00
C65    C     0.58470   0.82350   0.56380   0.04256  Uani   1.00
H66    H     0.62190   0.84480   0.57420   0.05100  Uiso   1.00
C67    C     0.56220   0.83920   0.51580   0.04911  Uani   1.00
C68    C     0.50820   0.80540   0.49480   0.06878  Uani   1.00
H69    H     0.49510   0.81550   0.45640   0.08300  Uiso   1.00
C70    C     0.57460   0.75440   0.65580   0.04278  Uani   1.00
C71    C     0.59300   0.89100   0.47160   0.06322  Uani   1.00
C72    C     0.64700   0.91080   0.45220   0.07878  Uani   1.00
H73    H     0.66560   0.89320   0.46760   0.09500  Uiso   1.00
C74    C     0.67380   0.95710   0.40970   0.06344  Uani   1.00
H75    H     0.70990   0.96950   0.39610   0.07600  Uiso   1.00
C76    C     0.64800   0.98470   0.38770   0.05656  Uani   1.00
C77    C     0.59680   0.96750   0.40820   0.05878  Uani   1.00
H78    H     0.57990   0.98730   0.39530   0.07000  Uiso   1.00
C79    C     0.56790   0.92040   0.44880   0.07333  Uani   1.00
H80    H     0.53160   0.90840   0.46090   0.08700  Uiso   1.00
C81    C     0.67690   0.03430   0.33840   0.05333  Uani   1.00
I82    I     0.77147   0.40252   0.92381   0.08229  Uani   1.00
Cu83   Cu    0.70854   0.31307   0.99809   0.06673  Uani   1.00
O84    O     0.78490   0.16350   0.17600   0.04411  Uani   1.00
O85    O     0.70580   0.16580   0.17910   0.05200  Uani   1.00
O86    O     0.04820   0.32300   0.82040   0.05467  Uani   1.00
O87    O     0.05310   0.40560   0.81970   0.05778  Uani   1.00
N88    N     0.75770   0.28400   0.02900   0.05778  Uani   1.00
C89    C     0.74330   0.24700   0.08170   0.04856  Uani   1.00
H90    H     0.71160   0.23790   0.10700   0.05900  Uiso   1.00
C91    C     0.77360   0.22220   0.09950   0.03933  Uani   1.00
C92    C     0.82350   0.23880   0.06380   0.04256  Uani   1.00
H93    H     0.84480   0.22290   0.07420   0.05100  Uiso   1.00
C94    C     0.83920   0.27700   0.01580   0.04911  Uani   1.00
C95    C     0.80540   0.29720   0.99480   0.06878  Uani   1.00
H96    H     0.81550   0.32040   0.95640   0.08300  Uiso   1.00
C97    C     0.75440   0.17980   0.15580   0.04278  Uani   1.00
C98    C     0.89100   0.29800   0.97160   0.06322  Uani   1.00
C99    C     0.91080   0.26380   0.95220   0.07878  Uani   1.00
H100   H     0.89320   0.22760   0.96760   0.09500  Uiso   1.00
C101   C     0.95710   0.28330   0.90970   0.06344  Uani   1.00
H102   H     0.96950   0.25960   0.89610   0.07600  Uiso   1.00
C103   C     0.98470   0.33670   0.88770   0.05656  Uani   1.00
C104   C     0.96750   0.37070   0.90820   0.05878  Uani   1.00
H105   H     0.98730   0.40740   0.89530   0.07000  Uiso   1.00
C106   C     0.92040   0.35250   0.94880   0.07333  Uani   1.00
H107   H     0.90840   0.37680   0.96090   0.08700  Uiso   1.00
C108   C     0.03430   0.35740   0.83840   0.05333  Uani   1.00
I109   I     0.59748   0.36895   0.92381   0.08229  Uani   1.00
Cu110  Cu    0.68693   0.39547   0.99809   0.06673  Uani   1.00
O111   O     0.83650   0.62140   0.17600   0.04411  Uani   1.00
O112   O     0.83420   0.54000   0.17910   0.05200  Uani   1.00
O113   O     0.67700   0.72520   0.82040   0.05467  Uani   1.00
O114   O     0.59440   0.64750   0.81970   0.05778  Uani   1.00
N115   N     0.71600   0.47370   0.02900   0.05778  Uani   1.00
C116   C     0.75300   0.49630   0.08170   0.04856  Uani   1.00
H117   H     0.76210   0.47370   0.10700   0.05900  Uiso   1.00
C118   C     0.77780   0.55140   0.09950   0.03933  Uani   1.00
C119   C     0.76120   0.58470   0.06380   0.04256  Uani   1.00
H120   H     0.77710   0.62190   0.07420   0.05100  Uiso   1.00
C121   C     0.72300   0.56220   0.01580   0.04911  Uani   1.00
C122   C     0.70280   0.50820   0.99480   0.06878  Uani   1.00
H123   H     0.67960   0.49510   0.95640   0.08300  Uiso   1.00
C124   C     0.82020   0.57460   0.15580   0.04278  Uani   1.00
C125   C     0.70200   0.59300   0.97160   0.06322  Uani   1.00
C126   C     0.73620   0.64700   0.95220   0.07878  Uani   1.00
H127   H     0.77240   0.66560   0.96760   0.09500  Uiso   1.00
C128   C     0.71670   0.67380   0.90970   0.06344  Uani   1.00
H129   H     0.74040   0.70990   0.89610   0.07600  Uiso   1.00
C130   C     0.66330   0.64800   0.88770   0.05656  Uani   1.00
C131   C     0.62930   0.59680   0.90820   0.05878  Uani   1.00
H132   H     0.59260   0.57990   0.89530   0.07000  Uiso   1.00
C133   C     0.64750   0.56790   0.94880   0.07333  Uani   1.00
H134   H     0.62320   0.53160   0.96090   0.08700  Uiso   1.00
C135   C     0.64260   0.67690   0.83840   0.05333  Uani   1.00
I136   I     0.63105   0.22853   0.92381   0.08229  Uani   1.00
Cu137  Cu    0.60453   0.29146   0.99809   0.06673  Uani   1.00
O138   O     0.37860   0.21510   0.17600   0.04411  Uani   1.00
O139   O     0.46000   0.29420   0.17910   0.05200  Uani   1.00
O140   O     0.27480   0.95180   0.82040   0.05467  Uani   1.00
O141   O     0.35250   0.94690   0.81970   0.05778  Uani   1.00
N142   N     0.52630   0.24230   0.02900   0.05778  Uani   1.00
C143   C     0.50370   0.25670   0.08170   0.04856  Uani   1.00
H144   H     0.52630   0.28840   0.10700   0.05900  Uiso   1.00
C145   C     0.44860   0.22640   0.09950   0.03933  Uani   1.00
C146   C     0.41530   0.17650   0.06380   0.04256  Uani   1.00
H147   H     0.37810   0.15520   0.07420   0.05100  Uiso   1.00
C148   C     0.43780   0.16080   0.01580   0.04911  Uani   1.00
C149   C     0.49180   0.19460   0.99480   0.06878  Uani   1.00
H150   H     0.50490   0.18450   0.95640   0.08300  Uiso   1.00
C151   C     0.42540   0.24560   0.15580   0.04278  Uani   1.00
C152   C     0.40700   0.10900   0.97160   0.06322  Uani   1.00
C153   C     0.35300   0.08920   0.95220   0.07878  Uani   1.00
H154   H     0.33440   0.10680   0.96760   0.09500  Uiso   1.00
C155   C     0.32620   0.04290   0.90970   0.06344  Uani   1.00
H156   H     0.29010   0.03050   0.89610   0.07600  Uiso   1.00
C157   C     0.35200   0.01530   0.88770   0.05656  Uani   1.00
C158   C     0.40320   0.03250   0.90820   0.05878  Uani   1.00
H159   H     0.42010   0.01270   0.89530   0.07000  Uiso   1.00
C160   C     0.43210   0.07960   0.94880   0.07333  Uani   1.00
H161   H     0.46840   0.09160   0.96090   0.08700  Uiso   1.00
C162   C     0.32310   0.96570   0.83840   0.05333  Uani   1.00
I163   I     0.77147   0.40252   0.57619   0.08229  Uani   1.00
Cu164  Cu    0.70854   0.31307   0.50191   0.06673  Uani   1.00
O165   O     0.78490   0.16350   0.32400   0.04411  Uani   1.00
O166   O     0.70580   0.16580   0.32090   0.05200  Uani   1.00
O167   O     0.04820   0.32300   0.67960   0.05467  Uani   1.00
O168   O     0.05310   0.40560   0.68030   0.05778  Uani   1.00
N169   N     0.75770   0.28400   0.47100   0.05778  Uani   1.00
C170   C     0.74330   0.24700   0.41830   0.04856  Uani   1.00
H171   H     0.71160   0.23790   0.39300   0.05900  Uiso   1.00
C172   C     0.77360   0.22220   0.40050   0.03933  Uani   1.00
C173   C     0.82350   0.23880   0.43620   0.04256  Uani   1.00
H174   H     0.84480   0.22290   0.42580   0.05100  Uiso   1.00
C175   C     0.83920   0.27700   0.48420   0.04911  Uani   1.00
C176   C     0.80540   0.29720   0.50520   0.06878  Uani   1.00
H177   H     0.81550   0.32040   0.54360   0.08300  Uiso   1.00
C178   C     0.75440   0.17980   0.34420   0.04278  Uani   1.00
C179   C     0.89100   0.29800   0.52840   0.06322  Uani   1.00
C180   C     0.91080   0.26380   0.54780   0.07878  Uani   1.00
H181   H     0.89320   0.22760   0.53240   0.09500  Uiso   1.00
C182   C     0.95710   0.28330   0.59030   0.06344  Uani   1.00
H183   H     0.96950   0.25960   0.60390   0.07600  Uiso   1.00
C184   C     0.98470   0.33670   0.61230   0.05656  Uani   1.00
C185   C     0.96750   0.37070   0.59180   0.05878  Uani   1.00
H186   H     0.98730   0.40740   0.60470   0.07000  Uiso   1.00
C187   C     0.92040   0.35250   0.55120   0.07333  Uani   1.00
H188   H     0.90840   0.37680   0.53910   0.08700  Uiso   1.00
C189   C     0.03430   0.35740   0.66160   0.05333  Uani   1.00
I190   I     0.59748   0.36895   0.57619   0.08229  Uani   1.00
Cu191  Cu    0.68693   0.39547   0.50191   0.06673  Uani   1.00
O192   O     0.83650   0.62140   0.32400   0.04411  Uani   1.00
O193   O     0.83420   0.54000   0.32090   0.05200  Uani   1.00
O194   O     0.67700   0.72520   0.67960   0.05467  Uani   1.00
O195   O     0.59440   0.64750   0.68030   0.05778  Uani   1.00
N196   N     0.71600   0.47370   0.47100   0.05778  Uani   1.00
C197   C     0.75300   0.49630   0.41830   0.04856  Uani   1.00
H198   H     0.76210   0.47370   0.39300   0.05900  Uiso   1.00
C199   C     0.77780   0.55140   0.40050   0.03933  Uani   1.00
C200   C     0.76120   0.58470   0.43620   0.04256  Uani   1.00
H201   H     0.77710   0.62190   0.42580   0.05100  Uiso   1.00
C202   C     0.72300   0.56220   0.48420   0.04911  Uani   1.00
C203   C     0.70280   0.50820   0.50520   0.06878  Uani   1.00
H204   H     0.67960   0.49510   0.54360   0.08300  Uiso   1.00
C205   C     0.82020   0.57460   0.34420   0.04278  Uani   1.00
C206   C     0.70200   0.59300   0.52840   0.06322  Uani   1.00
C207   C     0.73620   0.64700   0.54780   0.07878  Uani   1.00
H208   H     0.77240   0.66560   0.53240   0.09500  Uiso   1.00
C209   C     0.71670   0.67380   0.59030   0.06344  Uani   1.00
H210   H     0.74040   0.70990   0.60390   0.07600  Uiso   1.00
C211   C     0.66330   0.64800   0.61230   0.05656  Uani   1.00
C212   C     0.62930   0.59680   0.59180   0.05878  Uani   1.00
H213   H     0.59260   0.57990   0.60470   0.07000  Uiso   1.00
C214   C     0.64750   0.56790   0.55120   0.07333  Uani   1.00
H215   H     0.62320   0.53160   0.53910   0.08700  Uiso   1.00
C216   C     0.64260   0.67690   0.66160   0.05333  Uani   1.00
I217   I     0.63105   0.22853   0.57619   0.08229  Uani   1.00
Cu218  Cu    0.60453   0.29146   0.50191   0.06673  Uani   1.00
O219   O     0.37860   0.21510   0.32400   0.04411  Uani   1.00
O220   O     0.46000   0.29420   0.32090   0.05200  Uani   1.00
O221   O     0.27480   0.95180   0.67960   0.05467  Uani   1.00
O222   O     0.35250   0.94690   0.68030   0.05778  Uani   1.00
N223   N     0.52630   0.24230   0.47100   0.05778  Uani   1.00
C224   C     0.50370   0.25670   0.41830   0.04856  Uani   1.00
H225   H     0.52630   0.28840   0.39300   0.05900  Uiso   1.00
C226   C     0.44860   0.22640   0.40050   0.03933  Uani   1.00
C227   C     0.41530   0.17650   0.43620   0.04256  Uani   1.00
H228   H     0.37810   0.15520   0.42580   0.05100  Uiso   1.00
C229   C     0.43780   0.16080   0.48420   0.04911  Uani   1.00
C230   C     0.49180   0.19460   0.50520   0.06878  Uani   1.00
H231   H     0.50490   0.18450   0.54360   0.08300  Uiso   1.00
C232   C     0.42540   0.24560   0.34420   0.04278  Uani   1.00
C233   C     0.40700   0.10900   0.52840   0.06322  Uani   1.00
C234   C     0.35300   0.08920   0.54780   0.07878  Uani   1.00
H235   H     0.33440   0.10680   0.53240   0.09500  Uiso   1.00
C236   C     0.32620   0.04290   0.59030   0.06344  Uani   1.00
H237   H     0.29010   0.03050   0.60390   0.07600  Uiso   1.00
C238   C     0.35200   0.01530   0.61230   0.05656  Uani   1.00
C239   C     0.40320   0.03250   0.59180   0.05878  Uani   1.00
H240   H     0.42010   0.01270   0.60470   0.07000  Uiso   1.00
C241   C     0.43210   0.07960   0.55120   0.07333  Uani   1.00
H242   H     0.46840   0.09160   0.53910   0.08700  Uiso   1.00
C243   C     0.32310   0.96570   0.66160   0.05333  Uani   1.00
I244   I     0.22853   0.59748   0.07619   0.08229  Uani   1.00
Cu245  Cu    0.29146   0.68693   0.00191   0.06673  Uani   1.00
O246   O     0.21510   0.83650   0.82400   0.04411  Uani   1.00
O247   O     0.29420   0.83420   0.82090   0.05200  Uani   1.00
O248   O     0.95180   0.67700   0.17960   0.05467  Uani   1.00
O249   O     0.94690   0.59440   0.18030   0.05778  Uani   1.00
N250   N     0.24230   0.71600   0.97100   0.05778  Uani   1.00
C251   C     0.25670   0.75300   0.91830   0.04856  Uani   1.00
H252   H     0.28840   0.76210   0.89300   0.05900  Uiso   1.00
C253   C     0.22640   0.77780   0.90050   0.03933  Uani   1.00
C254   C     0.17650   0.76120   0.93620   0.04256  Uani   1.00
H255   H     0.15520   0.77710   0.92580   0.05100  Uiso   1.00
C256   C     0.16080   0.72300   0.98420   0.04911  Uani   1.00
C257   C     0.19460   0.70280   0.00520   0.06878  Uani   1.00
H258   H     0.18450   0.67960   0.04360   0.08300  Uiso   1.00
C259   C     0.24560   0.82020   0.84420   0.04278  Uani   1.00
C260   C     0.10900   0.70200   0.02840   0.06322  Uani   1.00
C261   C     0.08920   0.73620   0.04780   0.07878  Uani   1.00
H262   H     0.10680   0.77240   0.03240   0.09500  Uiso   1.00
C263   C     0.04290   0.71670   0.09030   0.06344  Uani   1.00
H264   H     0.03050   0.74040   0.10390   0.07600  Uiso   1.00
C265   C     0.01530   0.66330   0.11230   0.05656  Uani   1.00
C266   C     0.03250   0.62930   0.09180   0.05878  Uani   1.00
H267   H     0.01270   0.59260   0.10470   0.07000  Uiso   1.00
C268   C     0.07960   0.64750   0.05120   0.07333  Uani   1.00
H269   H     0.09160   0.62320   0.03910   0.08700  Uiso   1.00
C270   C     0.96570   0.64260   0.16160   0.05333  Uani   1.00
I271   I     0.40252   0.63105   0.07619   0.08229  Uani   1.00
Cu272  Cu    0.31307   0.60453   0.00191   0.06673  Uani   1.00
O273   O     0.16350   0.37860   0.82400   0.04411  Uani   1.00
O274   O     0.16580   0.46000   0.82090   0.05200  Uani   1.00
O275   O     0.32300   0.27480   0.17960   0.05467  Uani   1.00
O276   O     0.40560   0.35250   0.18030   0.05778  Uani   1.00
N277   N     0.28400   0.52630   0.97100   0.05778  Uani   1.00
C278   C     0.24700   0.50370   0.91830   0.04856  Uani   1.00
H279   H     0.23790   0.52630   0.89300   0.05900  Uiso   1.00
C280   C     0.22220   0.44860   0.90050   0.03933  Uani   1.00
C281   C     0.23880   0.41530   0.93620   0.04256  Uani   1.00
H282   H     0.22290   0.37810   0.92580   0.05100  Uiso   1.00
C283   C     0.27700   0.43780   0.98420   0.04911  Uani   1.00
C284   C     0.29720   0.49180   0.00520   0.06878  Uani   1.00
H285   H     0.32040   0.50490   0.04360   0.08300  Uiso   1.00
C286   C     0.17980   0.42540   0.84420   0.04278  Uani   1.00
C287   C     0.29800   0.40700   0.02840   0.06322  Uani   1.00
C288   C     0.26380   0.35300   0.04780   0.07878  Uani   1.00
H289   H     0.22760   0.33440   0.03240   0.09500  Uiso   1.00
C290   C     0.28330   0.32620   0.09030   0.06344  Uani   1.00
H291   H     0.25960   0.29010   0.10390   0.07600  Uiso   1.00
C292   C     0.33670   0.35200   0.11230   0.05656  Uani   1.00
C293   C     0.37070   0.40320   0.09180   0.05878  Uani   1.00
H294   H     0.40740   0.42010   0.10470   0.07000  Uiso   1.00
C295   C     0.35250   0.43210   0.05120   0.07333  Uani   1.00
H296   H     0.37680   0.46840   0.03910   0.08700  Uiso   1.00
C297   C     0.35740   0.32310   0.16160   0.05333  Uani   1.00
I298   I     0.36895   0.77147   0.07619   0.08229  Uani   1.00
Cu299  Cu    0.39547   0.70854   0.00191   0.06673  Uani   1.00
O300   O     0.62140   0.78490   0.82400   0.04411  Uani   1.00
O301   O     0.54000   0.70580   0.82090   0.05200  Uani   1.00
O302   O     0.72520   0.04820   0.17960   0.05467  Uani   1.00
O303   O     0.64750   0.05310   0.18030   0.05778  Uani   1.00
N304   N     0.47370   0.75770   0.97100   0.05778  Uani   1.00
C305   C     0.49630   0.74330   0.91830   0.04856  Uani   1.00
H306   H     0.47370   0.71160   0.89300   0.05900  Uiso   1.00
C307   C     0.55140   0.77360   0.90050   0.03933  Uani   1.00
C308   C     0.58470   0.82350   0.93620   0.04256  Uani   1.00
H309   H     0.62190   0.84480   0.92580   0.05100  Uiso   1.00
C310   C     0.56220   0.83920   0.98420   0.04911  Uani   1.00
C311   C     0.50820   0.80540   0.00520   0.06878  Uani   1.00
H312   H     0.49510   0.81550   0.04360   0.08300  Uiso   1.00
C313   C     0.57460   0.75440   0.84420   0.04278  Uani   1.00
C314   C     0.59300   0.89100   0.02840   0.06322  Uani   1.00
C315   C     0.64700   0.91080   0.04780   0.07878  Uani   1.00
H316   H     0.66560   0.89320   0.03240   0.09500  Uiso   1.00
C317   C     0.67380   0.95710   0.09030   0.06344  Uani   1.00
H318   H     0.70990   0.96950   0.10390   0.07600  Uiso   1.00
C319   C     0.64800   0.98470   0.11230   0.05656  Uani   1.00
C320   C     0.59680   0.96750   0.09180   0.05878  Uani   1.00
H321   H     0.57990   0.98730   0.10470   0.07000  Uiso   1.00
C322   C     0.56790   0.92040   0.05120   0.07333  Uani   1.00
H323   H     0.53160   0.90840   0.03910   0.08700  Uiso   1.00
C324   C     0.67690   0.03430   0.16160   0.05333  Uani   1.00
I325   I     0.33333   0.66667   0.61259   0.06791  Uani   1.00
Cu326  Cu    0.33333   0.66667   0.37955   0.11596  Uani   1.00
I327   I     0.66667   0.33333   0.11259   0.06791  Uani   1.00
Cu328  Cu    0.66667   0.33333   0.87955   0.11596  Uani   1.00
I329   I     0.66667   0.33333   0.38741   0.06791  Uani   1.00
Cu330  Cu    0.66667   0.33333   0.62045   0.11596  Uani   1.00
I331   I     0.33333   0.66667   0.88741   0.06791  Uani   1.00
Cu332  Cu    0.33333   0.66667   0.12045   0.11596  Uani   1.00
Cu333  Cu    0.23797   0.89432   0.75000   0.03649  Uani   1.00
Cu334  Cu    0.32995   0.89004   0.75000   0.03529  Uani   1.00
Cu335  Cu    0.10568   0.34365   0.75000   0.03649  Uani   1.00
Cu336  Cu    0.10996   0.43991   0.75000   0.03529  Uani   1.00
Cu337  Cu    0.65635   0.76203   0.75000   0.03649  Uani   1.00
Cu338  Cu    0.56009   0.67005   0.75000   0.03529  Uani   1.00
Cu339  Cu    0.76203   0.10568   0.25000   0.03649  Uani   1.00
Cu340  Cu    0.67005   0.10996   0.25000   0.03529  Uani   1.00
Cu341  Cu    0.89432   0.65635   0.25000   0.03649  Uani   1.00
Cu342  Cu    0.89004   0.56009   0.25000   0.03529  Uani   1.00
Cu343  Cu    0.34365   0.23797   0.25000   0.03649  Uani   1.00
Cu344  Cu    0.43991   0.32995   0.25000   0.03529  Uani   1.00
O345   O     0.33333   0.66667   0.25000   0.05033  Uani   1.00
O346   O     0.66667   0.33333   0.75000   0.05033  Uani   1.00
loop_
_atom_site_aniso_label
_atom_site_aniso_U_11
_atom_site_aniso_U_22
_atom_site_aniso_U_33
_atom_site_aniso_U_12
_atom_site_aniso_U_13
_atom_site_aniso_U_23
I1        0.07260   0.07440   0.09580   0.03370  -0.01510  -0.02490
Cu2       0.06330   0.07210   0.07340   0.04030  -0.01070  -0.01820
O3        0.04300   0.04600   0.04700   0.02500   0.00100   0.00100
O4        0.04700   0.05700   0.05200   0.02600  -0.01100  -0.02000
O5        0.04700   0.05800   0.06400   0.03000  -0.00300   0.00400
O6        0.05300   0.05600   0.06000   0.02400  -0.01700  -0.00600
N7        0.05700   0.04400   0.06800   0.02200  -0.01600  -0.03500
C8        0.04700   0.03800   0.05900   0.02000   0.00300   0.00900
C10       0.04200   0.03500   0.03800   0.01700  -0.00300   0.00400
C11       0.04500   0.04100   0.04500   0.02400  -0.00300  -0.02000
C13       0.04800   0.04900   0.05800   0.03000  -0.01300  -0.01700
C14       0.05300   0.06700   0.08500   0.02900  -0.03800  -0.04300
C16       0.05700   0.04000   0.02300   0.01800   0.00600  -0.00200
C17       0.06600   0.07500   0.07100   0.05200  -0.01500   0.00400
C18       0.04600   0.08500   0.10300   0.03100  -0.03900  -0.02900
C20       0.05000   0.07000   0.08500   0.04100   0.00400   0.00800
C22       0.05200   0.04800   0.07500   0.02900  -0.01600  -0.02100
C23       0.05700   0.04100   0.05100   0.00400  -0.02900  -0.01900
C25       0.07900   0.05600   0.08400   0.03300  -0.03200  -0.02500
C27       0.03700   0.06800   0.03600   0.01200  -0.00900  -0.00900
I28       0.07440   0.07960   0.09580   0.04070   0.02490   0.00980
Cu29      0.07210   0.05480   0.07340   0.03180   0.01820   0.00750
O30       0.04600   0.03900   0.04700   0.02100  -0.00100   0.00000
O31       0.05700   0.05200   0.05200   0.03100   0.02000   0.00900
O32       0.05800   0.04500   0.06400   0.02800  -0.00400  -0.00700
O33       0.05600   0.06100   0.06000   0.03200   0.00600  -0.01100
N34       0.04400   0.05700   0.06800   0.02200   0.03500   0.01900
C35       0.03800   0.04500   0.05900   0.01800  -0.00900  -0.00600
C37       0.03500   0.04300   0.03800   0.01800  -0.00400  -0.00700
C38       0.04100   0.03800   0.04500   0.01700   0.02000   0.01700
C40       0.04900   0.03700   0.05800   0.01900   0.01700   0.00400
C41       0.06700   0.06200   0.08500   0.03800   0.04300   0.00500
C43       0.04000   0.06100   0.02300   0.02200   0.00200   0.00800
C44       0.07500   0.03700   0.07100   0.02300  -0.00400  -0.01900
C45       0.08500   0.06900   0.10300   0.05400   0.02900  -0.01000
C47       0.07000   0.03800   0.08500   0.02900  -0.00800  -0.00400
C49       0.04800   0.04200   0.07500   0.01900   0.02100   0.00500
C50       0.04100   0.09000   0.05100   0.03700   0.01900  -0.01000
C52       0.05600   0.06900   0.08400   0.02300   0.02500  -0.00700
C54       0.06800   0.08100   0.03600   0.05600   0.00900  -0.00000
I55       0.07960   0.07260   0.09580   0.03890  -0.00980   0.01510
Cu56      0.05480   0.06330   0.07340   0.02300  -0.00750   0.01070
O57       0.03900   0.04300   0.04700   0.01800  -0.00000  -0.00100
O58       0.05200   0.04700   0.05200   0.02100  -0.00900   0.01100
O59       0.04500   0.04700   0.06400   0.01700   0.00700   0.00300
O60       0.06100   0.05300   0.06000   0.02900   0.01100   0.01700
N61       0.05700   0.05700   0.06800   0.03500  -0.01900   0.01600
C62       0.04500   0.04700   0.05900   0.02700   0.00600  -0.00300
C64       0.04300   0.04200   0.03800   0.02500   0.00700   0.00300
C65       0.03800   0.04500   0.04500   0.02100  -0.01700   0.00300
C67       0.03700   0.04800   0.05800   0.01800  -0.00400   0.01300
C68       0.06200   0.05300   0.08500   0.02400  -0.00500   0.03800
C70       0.06100   0.05700   0.02300   0.03900  -0.00800  -0.00600
C71       0.03700   0.06600   0.07100   0.01400   0.01900   0.01500
C72       0.06900   0.04600   0.10300   0.01500   0.01000   0.03900
C74       0.03800   0.05000   0.08500   0.00900   0.00400  -0.00400
C76       0.04200   0.05200   0.07500   0.02300  -0.00500   0.01600
C77       0.09000   0.05700   0.05100   0.05300   0.01000   0.02900
C79       0.06900   0.07900   0.08400   0.04600   0.00700   0.03200
C81       0.08100   0.03700   0.03600   0.02500   0.00000   0.00900
I82       0.07260   0.07440   0.09580   0.03370   0.01510   0.02490
Cu83      0.06330   0.07210   0.07340   0.04030   0.01070   0.01820
O84       0.04300   0.04600   0.04700   0.02500  -0.00100  -0.00100
O85       0.04700   0.05700   0.05200   0.02600   0.01100   0.02000
O86       0.04700   0.05800   0.06400   0.03000   0.00300  -0.00400
O87       0.05300   0.05600   0.06000   0.02400   0.01700   0.00600
N88       0.05700   0.04400   0.06800   0.02200   0.01600   0.03500
C89       0.04700   0.03800   0.05900   0.02000  -0.00300  -0.00900
C91       0.04200   0.03500   0.03800   0.01700   0.00300  -0.00400
C92       0.04500   0.04100   0.04500   0.02400   0.00300   0.02000
C94       0.04800   0.04900   0.05800   0.03000   0.01300   0.01700
C95       0.05300   0.06700   0.08500   0.02900   0.03800   0.04300
C97       0.05700   0.04000   0.02300   0.01800  -0.00600   0.00200
C98       0.06600   0.07500   0.07100   0.05200   0.01500  -0.00400
C99       0.04600   0.08500   0.10300   0.03100   0.03900   0.02900
C101      0.05000   0.07000   0.08500   0.04100  -0.00400  -0.00800
C103      0.05200   0.04800   0.07500   0.02900   0.01600   0.02100
C104      0.05700   0.04100   0.05100   0.00400   0.02900   0.01900
C106      0.07900   0.05600   0.08400   0.03300   0.03200   0.02500
C108      0.03700   0.06800   0.03600   0.01200   0.00900   0.00900
I109      0.07440   0.07960   0.09580   0.04070  -0.02490  -0.00980
Cu110     0.07210   0.05480   0.07340   0.03180  -0.01820  -0.00750
O111      0.04600   0.03900   0.04700   0.02100   0.00100  -0.00000
O112      0.05700   0.05200   0.05200   0.03100  -0.02000  -0.00900
O113      0.05800   0.04500   0.06400   0.02800   0.00400   0.00700
O114      0.05600   0.06100   0.06000   0.03200  -0.00600   0.01100
N115      0.04400   0.05700   0.06800   0.02200  -0.03500  -0.01900
C116      0.03800   0.04500   0.05900   0.01800   0.00900   0.00600
C118      0.03500   0.04300   0.03800   0.01800   0.00400   0.00700
C119      0.04100   0.03800   0.04500   0.01700  -0.02000  -0.01700
C121      0.04900   0.03700   0.05800   0.01900  -0.01700  -0.00400
C122      0.06700   0.06200   0.08500   0.03800  -0.04300  -0.00500
C124      0.04000   0.06100   0.02300   0.02200  -0.00200  -0.00800
C125      0.07500   0.03700   0.07100   0.02300   0.00400   0.01900
C126      0.08500   0.06900   0.10300   0.05400  -0.02900   0.01000
C128      0.07000   0.03800   0.08500   0.02900   0.00800   0.00400
C130      0.04800   0.04200   0.07500   0.01900  -0.02100  -0.00500
C131      0.04100   0.09000   0.05100   0.03700  -0.01900   0.01000
C133      0.05600   0.06900   0.08400   0.02300  -0.02500   0.00700
C135      0.06800   0.08100   0.03600   0.05600  -0.00900   0.00000
I136      0.07960   0.07260   0.09580   0.03890   0.00980  -0.01510
Cu137     0.05480   0.06330   0.07340   0.02300   0.00750  -0.01070
O138      0.03900   0.04300   0.04700   0.01800   0.00000   0.00100
O139      0.05200   0.04700   0.05200   0.02100   0.00900  -0.01100
O140      0.04500   0.04700   0.06400   0.01700  -0.00700  -0.00300
O141      0.06100   0.05300   0.06000   0.02900  -0.01100  -0.01700
N142      0.05700   0.05700   0.06800   0.03500   0.01900  -0.01600
C143      0.04500   0.04700   0.05900   0.02700  -0.00600   0.00300
C145      0.04300   0.04200   0.03800   0.02500  -0.00700  -0.00300
C146      0.03800   0.04500   0.04500   0.02100   0.01700  -0.00300
C148      0.03700   0.04800   0.05800   0.01800   0.00400  -0.01300
C149      0.06200   0.05300   0.08500   0.02400   0.00500  -0.03800
C151      0.06100   0.05700   0.02300   0.03900   0.00800   0.00600
C152      0.03700   0.06600   0.07100   0.01400  -0.01900  -0.01500
C153      0.06900   0.04600   0.10300   0.01500  -0.01000  -0.03900
C155      0.03800   0.05000   0.08500   0.00900  -0.00400   0.00400
C157      0.04200   0.05200   0.07500   0.02300   0.00500  -0.01600
C158      0.09000   0.05700   0.05100   0.05300  -0.01000  -0.02900
C160      0.06900   0.07900   0.08400   0.04600  -0.00700  -0.03200
C162      0.08100   0.03700   0.03600   0.02500  -0.00000  -0.00900
I163      0.07260   0.07440   0.09580   0.03370  -0.01510  -0.02490
Cu164     0.06330   0.07210   0.07340   0.04030  -0.01070  -0.01820
O165      0.04300   0.04600   0.04700   0.02500   0.00100   0.00100
O166      0.04700   0.05700   0.05200   0.02600  -0.01100  -0.02000
O167      0.04700   0.05800   0.06400   0.03000  -0.00300   0.00400
O168      0.05300   0.05600   0.06000   0.02400  -0.01700  -0.00600
N169      0.05700   0.04400   0.06800   0.02200  -0.01600  -0.03500
C170      0.04700   0.03800   0.05900   0.02000   0.00300   0.00900
C172      0.04200   0.03500   0.03800   0.01700  -0.00300   0.00400
C173      0.04500   0.04100   0.04500   0.02400  -0.00300  -0.02000
C175      0.04800   0.04900   0.05800   0.03000  -0.01300  -0.01700
C176      0.05300   0.06700   0.08500   0.02900  -0.03800  -0.04300
C178      0.05700   0.04000   0.02300   0.01800   0.00600  -0.00200
C179      0.06600   0.07500   0.07100   0.05200  -0.01500   0.00400
C180      0.04600   0.08500   0.10300   0.03100  -0.03900  -0.02900
C182      0.05000   0.07000   0.08500   0.04100   0.00400   0.00800
C184      0.05200   0.04800   0.07500   0.02900  -0.01600  -0.02100
C185      0.05700   0.04100   0.05100   0.00400  -0.02900  -0.01900
C187      0.07900   0.05600   0.08400   0.03300  -0.03200  -0.02500
C189      0.03700   0.06800   0.03600   0.01200  -0.00900  -0.00900
I190      0.07440   0.07960   0.09580   0.04070   0.02490   0.00980
Cu191     0.07210   0.05480   0.07340   0.03180   0.01820   0.00750
O192      0.04600   0.03900   0.04700   0.02100  -0.00100   0.00000
O193      0.05700   0.05200   0.05200   0.03100   0.02000   0.00900
O194      0.05800   0.04500   0.06400   0.02800  -0.00400  -0.00700
O195      0.05600   0.06100   0.06000   0.03200   0.00600  -0.01100
N196      0.04400   0.05700   0.06800   0.02200   0.03500   0.01900
C197      0.03800   0.04500   0.05900   0.01800  -0.00900  -0.00600
C199      0.03500   0.04300   0.03800   0.01800  -0.00400  -0.00700
C200      0.04100   0.03800   0.04500   0.01700   0.02000   0.01700
C202      0.04900   0.03700   0.05800   0.01900   0.01700   0.00400
C203      0.06700   0.06200   0.08500   0.03800   0.04300   0.00500
C205      0.04000   0.06100   0.02300   0.02200   0.00200   0.00800
C206      0.07500   0.03700   0.07100   0.02300  -0.00400  -0.01900
C207      0.08500   0.06900   0.10300   0.05400   0.02900  -0.01000
C209      0.07000   0.03800   0.08500   0.02900  -0.00800  -0.00400
C211      0.04800   0.04200   0.07500   0.01900   0.02100   0.00500
C212      0.04100   0.09000   0.05100   0.03700   0.01900  -0.01000
C214      0.05600   0.06900   0.08400   0.02300   0.02500  -0.00700
C216      0.06800   0.08100   0.03600   0.05600   0.00900  -0.00000
I217      0.07960   0.07260   0.09580   0.03890  -0.00980   0.01510
Cu218     0.05480   0.06330   0.07340   0.02300  -0.00750   0.01070
O219      0.03900   0.04300   0.04700   0.01800  -0.00000  -0.00100
O220      0.05200   0.04700   0.05200   0.02100  -0.00900   0.01100
O221      0.04500   0.04700   0.06400   0.01700   0.00700   0.00300
O222      0.06100   0.05300   0.06000   0.02900   0.01100   0.01700
N223      0.05700   0.05700   0.06800   0.03500  -0.01900   0.01600
C224      0.04500   0.04700   0.05900   0.02700   0.00600  -0.00300
C226      0.04300   0.04200   0.03800   0.02500   0.00700   0.00300
C227      0.03800   0.04500   0.04500   0.02100  -0.01700   0.00300
C229      0.03700   0.04800   0.05800   0.01800  -0.00400   0.01300
C230      0.06200   0.05300   0.08500   0.02400  -0.00500   0.03800
C232      0.06100   0.05700   0.02300   0.03900  -0.00800  -0.00600
C233      0.03700   0.06600   0.07100   0.01400   0.01900   0.01500
C234      0.06900   0.04600   0.10300   0.01500   0.01000   0.03900
C236      0.03800   0.05000   0.08500   0.00900   0.00400  -0.00400
C238      0.04200   0.05200   0.07500   0.02300  -0.00500   0.01600
C239      0.09000   0.05700   0.05100   0.05300   0.01000   0.02900
C241      0.06900   0.07900   0.08400   0.04600   0.00700   0.03200
C243      0.08100   0.03700   0.03600   0.02500   0.00000   0.00900
I244      0.07260   0.07440   0.09580   0.03370   0.01510   0.02490
Cu245     0.06330   0.07210   0.07340   0.04030   0.01070   0.01820
O246      0.04300   0.04600   0.04700   0.02500  -0.00100  -0.00100
O247      0.04700   0.05700   0.05200   0.02600   0.01100   0.02000
O248      0.04700   0.05800   0.06400   0.03000   0.00300  -0.00400
O249      0.05300   0.05600   0.06000   0.02400   0.01700   0.00600
N250      0.05700   0.04400   0.06800   0.02200   0.01600   0.03500
C251      0.04700   0.03800   0.05900   0.02000  -0.00300  -0.00900
C253      0.04200   0.03500   0.03800   0.01700   0.00300  -0.00400
C254      0.04500   0.04100   0.04500   0.02400   0.00300   0.02000
C256      0.04800   0.04900   0.05800   0.03000   0.01300   0.01700
C257      0.05300   0.06700   0.08500   0.02900   0.03800   0.04300
C259      0.05700   0.04000   0.02300   0.01800  -0.00600   0.00200
C260      0.06600   0.07500   0.07100   0.05200   0.01500  -0.00400
C261      0.04600   0.08500   0.10300   0.03100   0.03900   0.02900
C263      0.05000   0.07000   0.08500   0.04100  -0.00400  -0.00800
C265      0.05200   0.04800   0.07500   0.02900   0.01600   0.02100
C266      0.05700   0.04100   0.05100   0.00400   0.02900   0.01900
C268      0.07900   0.05600   0.08400   0.03300   0.03200   0.02500
C270      0.03700   0.06800   0.03600   0.01200   0.00900   0.00900
I271      0.07440   0.07960   0.09580   0.04070  -0.02490  -0.00980
Cu272     0.07210   0.05480   0.07340   0.03180  -0.01820  -0.00750
O273      0.04600   0.03900   0.04700   0.02100   0.00100  -0.00000
O274      0.05700   0.05200   0.05200   0.03100  -0.02000  -0.00900
O275      0.05800   0.04500   0.06400   0.02800   0.00400   0.00700
O276      0.05600   0.06100   0.06000   0.03200  -0.00600   0.01100
N277      0.04400   0.05700   0.06800   0.02200  -0.03500  -0.01900
C278      0.03800   0.04500   0.05900   0.01800   0.00900   0.00600
C280      0.03500   0.04300   0.03800   0.01800   0.00400   0.00700
C281      0.04100   0.03800   0.04500   0.01700  -0.02000  -0.01700
C283      0.04900   0.03700   0.05800   0.01900  -0.01700  -0.00400
C284      0.06700   0.06200   0.08500   0.03800  -0.04300  -0.00500
C286      0.04000   0.06100   0.02300   0.02200  -0.00200  -0.00800
C287      0.07500   0.03700   0.07100   0.02300   0.00400   0.01900
C288      0.08500   0.06900   0.10300   0.05400  -0.02900   0.01000
C290      0.07000   0.03800   0.08500   0.02900   0.00800   0.00400
C292      0.04800   0.04200   0.07500   0.01900  -0.02100  -0.00500
C293      0.04100   0.09000   0.05100   0.03700  -0.01900   0.01000
C295      0.05600   0.06900   0.08400   0.02300  -0.02500   0.00700
C297      0.06800   0.08100   0.03600   0.05600  -0.00900   0.00000
I298      0.07960   0.07260   0.09580   0.03890   0.00980  -0.01510
Cu299     0.05480   0.06330   0.07340   0.02300   0.00750  -0.01070
O300      0.03900   0.04300   0.04700   0.01800   0.00000   0.00100
O301      0.05200   0.04700   0.05200   0.02100   0.00900  -0.01100
O302      0.04500   0.04700   0.06400   0.01700  -0.00700  -0.00300
O303      0.06100   0.05300   0.06000   0.02900  -0.01100  -0.01700
N304      0.05700   0.05700   0.06800   0.03500   0.01900  -0.01600
C305      0.04500   0.04700   0.05900   0.02700  -0.00600   0.00300
C307      0.04300   0.04200   0.03800   0.02500  -0.00700  -0.00300
C308      0.03800   0.04500   0.04500   0.02100   0.01700  -0.00300
C310      0.03700   0.04800   0.05800   0.01800   0.00400  -0.01300
C311      0.06200   0.05300   0.08500   0.02400   0.00500  -0.03800
C313      0.06100   0.05700   0.02300   0.03900   0.00800   0.00600
C314      0.03700   0.06600   0.07100   0.01400  -0.01900  -0.01500
C315      0.06900   0.04600   0.10300   0.01500  -0.01000  -0.03900
C317      0.03800   0.05000   0.08500   0.00900  -0.00400   0.00400
C319      0.04200   0.05200   0.07500   0.02300   0.00500  -0.01600
C320      0.09000   0.05700   0.05100   0.05300  -0.01000  -0.02900
C322      0.06900   0.07900   0.08400   0.04600  -0.00700  -0.03200
C324      0.08100   0.03700   0.03600   0.02500  -0.00000  -0.00900
I325      0.07227   0.07227   0.05920   0.03613   0.00000   0.00000
Cu326     0.12993   0.12993   0.08800   0.06497   0.00000   0.00000
I327      0.07227   0.07227   0.05920   0.03613   0.00000   0.00000
Cu328     0.12993   0.12993   0.08800   0.06497   0.00000   0.00000
I329      0.07227   0.07227   0.05920   0.03613   0.00000   0.00000
Cu330     0.12993   0.12993   0.08800   0.06497   0.00000   0.00000
I331      0.07227   0.07227   0.05920   0.03613   0.00000   0.00000
Cu332     0.12993   0.12993   0.08800   0.06497   0.00000   0.00000
Cu333     0.03600   0.03670   0.03440   0.01640   0.00000   0.00000
Cu334     0.03470   0.03520   0.03160   0.01420   0.00000   0.00000
Cu335     0.03670   0.03990   0.03440   0.02030   0.00000   0.00000
Cu336     0.03520   0.04150   0.03160   0.02100   0.00000   0.00000
Cu337     0.03990   0.03600   0.03440   0.01960   0.00000   0.00000
Cu338     0.04150   0.03470   0.03160   0.02050   0.00000   0.00000
Cu339     0.03600   0.03670   0.03440   0.01640   0.00000   0.00000
Cu340     0.03470   0.03520   0.03160   0.01420   0.00000   0.00000
Cu341     0.03670   0.03990   0.03440   0.02030   0.00000   0.00000
Cu342     0.03520   0.04150   0.03160   0.02100   0.00000   0.00000
Cu343     0.03990   0.03600   0.03440   0.01960   0.00000   0.00000
Cu344     0.04150   0.03470   0.03160   0.02050   0.00000   0.00000
O345      0.05300   0.05300   0.04500   0.02650   0.00000   0.00000
O346      0.05300   0.05300   0.04500   0.02650   0.00000   0.00000
loop_
_geom_bond_atom_site_label_1
_geom_bond_atom_site_label_2
_geom_bond_distance
_geom_bond_site_symmetry_2
_ccdc_geom_bond_type
I1     Cu2     2.655   .     S
I1     Cu326   2.732   .     S
I1     Cu29    2.694   .     S
Cu2    I325    2.687   .     S
Cu2    N7      2.016   .     S
Cu2    Cu326   2.750   .     S
Cu2    I55     2.694   .     S
Cu2    Cu29    2.675   .     S
Cu2    Cu56    2.675   .     S
O3     Cu333   2.008   .     S
O3     C16     1.221   .     S
O4     Cu334   1.937   .     S
O4     C16     1.299   .     S
O5     C27     1.260   .     S
O5     Cu341   1.960   .     S
O6     C27     1.237   .     S
O6     Cu342   1.933   .     S
N7     C8      1.360   .     S
N7     C14     1.368   .     S
C8     C10     1.388   .     S
C8     H9      0.932   .     S
C10    C11     1.415   .     S
C10    C16     1.496   .     S
C11    C13     1.313   .     S
C11    H12     0.931   .     S
C13    C14     1.389   .     S
C13    C17     1.527   .     S
C14    H15     0.930   .     S
C17    C18     1.382   .     S
C17    C25     1.400   .     S
C18    C20     1.396   .     S
C18    H19     0.930   .     S
C20    C22     1.368   .     S
C20    H21     0.931   .     S
C22    C23     1.329   .     S
C22    C27     1.539   1_455 S
C23    C25     1.395   .     S
C23    H24     0.929   .     S
C25    H26     0.931   .     S
C27    C22     1.539   1_655 S
I28    Cu29    2.655   .     S
I28    Cu326   2.732   .     S
I28    Cu56    2.694   .     S
Cu29   I325    2.687   .     S
Cu29   N34     2.016   .     S
Cu29   Cu326   2.750   .     S
Cu29   Cu56    2.675   .     S
O30    Cu335   2.008   .     S
O30    C43     1.221   .     S
O31    Cu336   1.937   .     S
O31    C43     1.299   .     S
O32    C54     1.260   .     S
O32    Cu343   1.960   .     S
O33    C54     1.237   .     S
O33    Cu344   1.933   .     S
N34    C35     1.360   .     S
N34    C41     1.368   .     S
C35    C37     1.388   .     S
C35    H36     0.932   .     S
C37    C38     1.415   .     S
C37    C43     1.496   .     S
C38    C40     1.313   .     S
C38    H39     0.931   .     S
C40    C41     1.389   .     S
C40    C44     1.527   .     S
C41    H42     0.930   .     S
C44    C45     1.382   .     S
C44    C52     1.400   .     S
C45    C47     1.396   .     S
C45    H46     0.930   .     S
C47    C49     1.368   .     S
C47    H48     0.931   .     S
C49    C50     1.329   .     S
C49    C54     1.539   .     S
C50    C52     1.395   .     S
C50    H51     0.929   .     S
C52    H53     0.931   .     S
I55    Cu56    2.655   .     S
I55    Cu326   2.732   .     S
Cu56   I325    2.687   .     S
Cu56   N61     2.016   .     S
Cu56   Cu326   2.750   .     S
O57    Cu337   2.008   .     S
O57    C70     1.221   .     S
O58    Cu338   1.937   .     S
O58    C70     1.299   .     S
O59    C81     1.260   .     S
O59    Cu339   1.960   .     S
O60    C81     1.237   .     S
O60    Cu340   1.933   .     S
N61    C62     1.360   .     S
N61    C68     1.368   .     S
C62    C64     1.388   .     S
C62    H63     0.932   .     S
C64    C65     1.415   .     S
C64    C70     1.496   .     S
C65    C67     1.313   .     S
C65    H66     0.931   .     S
C67    C68     1.389   .     S
C67    C71     1.527   .     S
C68    H69     0.930   .     S
C71    C72     1.382   .     S
C71    C79     1.400   .     S
C72    C74     1.396   .     S
C72    H73     0.930   .     S
C74    C76     1.368   .     S
C74    H75     0.931   .     S
C76    C77     1.329   .     S
C76    C81     1.539   1_565 S
C77    C79     1.395   .     S
C77    H78     0.929   .     S
C79    H80     0.931   .     S
C81    C76     1.539   1_545 S
I82    Cu83    2.655   .     S
I82    Cu328   2.732   .     S
I82    Cu110   2.694   .     S
Cu83   Cu328   2.750   .     S
Cu83   I136    2.694   .     S
Cu83   Cu110   2.675   .     S
Cu83   Cu137   2.675   .     S
Cu83   N88     2.016   1_556 S
Cu83   I327    2.687   1_556 S
O84    Cu339   2.008   .     S
O84    C97     1.221   .     S
O85    Cu340   1.937   .     S
O85    C97     1.299   .     S
O86    C108    1.260   .     S
O86    Cu335   1.960   .     S
O87    C108    1.237   .     S
O87    Cu336   1.933   .     S
N88    C89     1.360   .     S
N88    Cu83    2.016   1_554 S
N88    C95     1.368   1_554 S
C89    C91     1.388   .     S
C89    H90     0.932   .     S
C91    C92     1.415   .     S
C91    C97     1.496   .     S
C92    C94     1.313   .     S
C92    H93     0.931   .     S
C94    C95     1.389   1_554 S
C94    C98     1.527   1_554 S
C95    H96     0.930   .     S
C95    N88     1.368   1_556 S
C95    C94     1.389   1_556 S
C98    C99     1.382   .     S
C98    C106    1.400   .     S
C98    C94     1.527   1_556 S
C99    C101    1.396   .     S
C99    H100    0.930   .     S
C101   C103    1.368   .     S
C101   H102    0.931   .     S
C103   C104    1.329   .     S
C103   C108    1.539   1_655 S
C104   C106    1.395   .     S
C104   H105    0.929   .     S
C106   H107    0.931   .     S
C108   C103    1.539   1_455 S
I109   Cu110   2.655   .     S
I109   Cu328   2.732   .     S
I109   Cu137   2.694   .     S
Cu110  Cu328   2.750   .     S
Cu110  Cu137   2.675   .     S
Cu110  N115    2.016   1_556 S
Cu110  I327    2.687   1_556 S
O111   Cu341   2.008   .     S
O111   C124    1.221   .     S
O112   Cu342   1.937   .     S
O112   C124    1.299   .     S
O113   C135    1.260   .     S
O113   Cu337   1.960   .     S
O114   C135    1.237   .     S
O114   Cu338   1.933   .     S
N115   C116    1.360   .     S
N115   Cu110   2.016   1_554 S
N115   C122    1.368   1_554 S
C116   C118    1.388   .     S
C116   H117    0.932   .     S
C118   C119    1.415   .     S
C118   C124    1.496   .     S
C119   C121    1.313   .     S
C119   H120    0.931   .     S
C121   C122    1.389   1_554 S
C121   C125    1.527   1_554 S
C122   H123    0.930   .     S
C122   N115    1.368   1_556 S
C122   C121    1.389   1_556 S
C125   C126    1.382   .     S
C125   C133    1.400   .     S
C125   C121    1.527   1_556 S
C126   C128    1.396   .     S
C126   H127    0.930   .     S
C128   C130    1.368   .     S
C128   H129    0.931   .     S
C130   C131    1.329   .     S
C130   C135    1.539   .     S
C131   C133    1.395   .     S
C131   H132    0.929   .     S
C133   H134    0.931   .     S
I136   Cu137   2.655   .     S
I136   Cu328   2.732   .     S
Cu137  Cu328   2.750   .     S
Cu137  N142    2.016   1_556 S
Cu137  I327    2.687   1_556 S
O138   Cu343   2.008   .     S
O138   C151    1.221   .     S
O139   Cu344   1.937   .     S
O139   C151    1.299   .     S
O140   C162    1.260   .     S
O140   Cu333   1.960   .     S
O141   C162    1.237   .     S
O141   Cu334   1.933   .     S
N142   C143    1.360   .     S
N142   Cu137   2.016   1_554 S
N142   C149    1.368   1_554 S
C143   C145    1.388   .     S
C143   H144    0.932   .     S
C145   C146    1.415   .     S
C145   C151    1.496   .     S
C146   C148    1.313   .     S
C146   H147    0.931   .     S
C148   C149    1.389   1_554 S
C148   C152    1.527   1_554 S
C149   H150    0.930   .     S
C149   C148    1.389   1_556 S
C149   N142    1.368   1_556 S
C152   C153    1.382   .     S
C152   C160    1.400   .     S
C152   C148    1.527   1_556 S
C153   C155    1.396   .     S
C153   H154    0.930   .     S
C155   C157    1.368   .     S
C155   H156    0.931   .     S
C157   C158    1.329   .     S
C157   C162    1.539   1_545 S
C158   C160    1.395   .     S
C158   H159    0.929   .     S
C160   H161    0.931   .     S
C162   C157    1.539   1_565 S
I163   Cu164   2.655   .     S
I163   Cu330   2.732   .     S
I163   Cu191   2.694   .     S
Cu164  I329    2.687   .     S
Cu164  N169    2.016   .     S
Cu164  Cu330   2.750   .     S
Cu164  I217    2.694   .     S
Cu164  Cu191   2.675   .     S
Cu164  Cu218   2.675   .     S
O165   Cu339   2.008   .     S
O165   C178    1.221   .     S
O166   Cu340   1.937   .     S
O166   C178    1.299   .     S
O167   C189    1.260   .     S
O167   Cu335   1.960   .     S
O168   C189    1.237   .     S
O168   Cu336   1.933   .     S
N169   C170    1.360   .     S
N169   C176    1.368   .     S
C170   C172    1.388   .     S
C170   H171    0.932   .     S
C172   C173    1.415   .     S
C172   C178    1.496   .     S
C173   C175    1.313   .     S
C173   H174    0.931   .     S
C175   C176    1.389   .     S
C175   C179    1.527   .     S
C176   H177    0.930   .     S
C179   C180    1.382   .     S
C179   C187    1.400   .     S
C180   C182    1.396   .     S
C180   H181    0.930   .     S
C182   C184    1.368   .     S
C182   H183    0.931   .     S
C184   C185    1.329   .     S
C184   C189    1.539   1_655 S
C185   C187    1.395   .     S
C185   H186    0.929   .     S
C187   H188    0.931   .     S
C189   C184    1.539   1_455 S
I190   Cu191   2.655   .     S
I190   Cu330   2.732   .     S
I190   Cu218   2.694   .     S
Cu191  I329    2.687   .     S
Cu191  N196    2.016   .     S
Cu191  Cu330   2.750   .     S
Cu191  Cu218   2.675   .     S
O192   Cu341   2.008   .     S
O192   C205    1.221   .     S
O193   Cu342   1.937   .     S
O193   C205    1.299   .     S
O194   C216    1.260   .     S
O194   Cu337   1.960   .     S
O195   C216    1.237   .     S
O195   Cu338   1.933   .     S
N196   C197    1.360   .     S
N196   C203    1.368   .     S
C197   C199    1.388   .     S
C197   H198    0.932   .     S
C199   C200    1.415   .     S
C199   C205    1.496   .     S
C200   C202    1.313   .     S
C200   H201    0.931   .     S
C202   C203    1.389   .     S
C202   C206    1.527   .     S
C203   H204    0.930   .     S
C206   C207    1.382   .     S
C206   C214    1.400   .     S
C207   C209    1.396   .     S
C207   H208    0.930   .     S
C209   C211    1.368   .     S
C209   H210    0.931   .     S
C211   C212    1.329   .     S
C211   C216    1.539   .     S
C212   C214    1.395   .     S
C212   H213    0.929   .     S
C214   H215    0.931   .     S
I217   Cu218   2.655   .     S
I217   Cu330   2.732   .     S
Cu218  I329    2.687   .     S
Cu218  N223    2.016   .     S
Cu218  Cu330   2.750   .     S
O219   Cu343   2.008   .     S
O219   C232    1.221   .     S
O220   Cu344   1.937   .     S
O220   C232    1.299   .     S
O221   C243    1.260   .     S
O221   Cu333   1.960   .     S
O222   C243    1.237   .     S
O222   Cu334   1.933   .     S
N223   C224    1.360   .     S
N223   C230    1.368   .     S
C224   C226    1.388   .     S
C224   H225    0.932   .     S
C226   C227    1.415   .     S
C226   C232    1.496   .     S
C227   C229    1.313   .     S
C227   H228    0.931   .     S
C229   C230    1.389   .     S
C229   C233    1.527   .     S
C230   H231    0.930   .     S
C233   C234    1.382   .     S
C233   C241    1.400   .     S
C234   C236    1.396   .     S
C234   H235    0.930   .     S
C236   C238    1.368   .     S
C236   H237    0.931   .     S
C238   C239    1.329   .     S
C238   C243    1.539   1_545 S
C239   C241    1.395   .     S
C239   H240    0.929   .     S
C241   H242    0.931   .     S
C243   C238    1.539   1_565 S
I244   Cu245   2.655   .     S
I244   Cu332   2.732   .     S
I244   Cu272   2.694   .     S
Cu245  Cu332   2.750   .     S
Cu245  I298    2.694   .     S
Cu245  Cu272   2.675   .     S
Cu245  Cu299   2.675   .     S
Cu245  N250    2.016   1_554 S
Cu245  I331    2.687   1_554 S
O246   Cu333   2.008   .     S
O246   C259    1.221   .     S
O247   Cu334   1.937   .     S
O247   C259    1.299   .     S
O248   C270    1.260   .     S
O248   Cu341   1.960   .     S
O249   C270    1.237   .     S
O249   Cu342   1.933   .     S
N250   C251    1.360   .     S
N250   Cu245   2.016   1_556 S
N250   C257    1.368   1_556 S
C251   C253    1.388   .     S
C251   H252    0.932   .     S
C253   C254    1.415   .     S
C253   C259    1.496   .     S
C254   C256    1.313   .     S
C254   H255    0.931   .     S
C256   C257    1.389   1_556 S
C256   C260    1.527   1_556 S
C257   H258    0.930   .     S
C257   N250    1.368   1_554 S
C257   C256    1.389   1_554 S
C260   C261    1.382   .     S
C260   C268    1.400   .     S
C260   C256    1.527   1_554 S
C261   C263    1.396   .     S
C261   H262    0.930   .     S
C263   C265    1.368   .     S
C263   H264    0.931   .     S
C265   C266    1.329   .     S
C265   C270    1.539   1_455 S
C266   C268    1.395   .     S
C266   H267    0.929   .     S
C268   H269    0.931   .     S
C270   C265    1.539   1_655 S
I271   Cu272   2.655   .     S
I271   Cu332   2.732   .     S
I271   Cu299   2.694   .     S
Cu272  Cu332   2.750   .     S
Cu272  Cu299   2.675   .     S
Cu272  N277    2.016   1_554 S
Cu272  I331    2.687   1_554 S
O273   Cu335   2.008   .     S
O273   C286    1.221   .     S
O274   Cu336   1.937   .     S
O274   C286    1.299   .     S
O275   C297    1.260   .     S
O275   Cu343   1.960   .     S
O276   C297    1.237   .     S
O276   Cu344   1.933   .     S
N277   C278    1.360   .     S
N277   Cu272   2.016   1_556 S
N277   C284    1.368   1_556 S
C278   C280    1.388   .     S
C278   H279    0.932   .     S
C280   C281    1.415   .     S
C280   C286    1.496   .     S
C281   C283    1.313   .     S
C281   H282    0.931   .     S
C283   C284    1.389   1_556 S
C283   C287    1.527   1_556 S
C284   H285    0.930   .     S
C284   N277    1.368   1_554 S
C284   C283    1.389   1_554 S
C287   C288    1.382   .     S
C287   C295    1.400   .     S
C287   C283    1.527   1_554 S
C288   C290    1.396   .     S
C288   H289    0.930   .     S
C290   C292    1.368   .     S
C290   H291    0.931   .     S
C292   C293    1.329   .     S
C292   C297    1.539   .     S
C293   C295    1.395   .     S
C293   H294    0.929   .     S
C295   H296    0.931   .     S
I298   Cu299   2.655   .     S
I298   Cu332   2.732   .     S
Cu299  Cu332   2.750   .     S
Cu299  N304    2.016   1_554 S
Cu299  I331    2.687   1_554 S
O300   Cu337   2.008   .     S
O300   C313    1.221   .     S
O301   Cu338   1.937   .     S
O301   C313    1.299   .     S
O302   C324    1.260   .     S
O302   Cu339   1.960   .     S
O303   C324    1.237   .     S
O303   Cu340   1.933   .     S
N304   C305    1.360   .     S
N304   Cu299   2.016   1_556 S
N304   C311    1.368   1_556 S
C305   C307    1.388   .     S
C305   H306    0.932   .     S
C307   C308    1.415   .     S
C307   C313    1.496   .     S
C308   C310    1.313   .     S
C308   H309    0.931   .     S
C310   C311    1.389   1_556 S
C310   C314    1.527   1_556 S
C311   H312    0.930   .     S
C311   C310    1.389   1_554 S
C311   N304    1.368   1_554 S
C314   C315    1.382   .     S
C314   C322    1.400   .     S
C314   C310    1.527   1_554 S
C315   C317    1.396   .     S
C315   H316    0.930   .     S
C317   C319    1.368   .     S
C317   H318    0.931   .     S
C319   C320    1.329   .     S
C319   C324    1.539   1_565 S
C320   C322    1.395   .     S
C320   H321    0.929   .     S
C322   H323    0.931   .     S
C324   C319    1.539   1_545 S
I327   Cu110   2.687   1_554 S
I327   Cu83    2.687   1_554 S
I327   Cu137   2.687   1_554 S
I331   Cu245   2.687   1_556 S
I331   Cu272   2.687   1_556 S
I331   Cu299   2.687   1_556 S
Cu333  Cu334   2.650   .     S
Cu335  Cu336   2.650   .     S
Cu337  Cu338   2.650   .     S
Cu339  Cu340   2.650   .     S
Cu341  Cu342   2.650   .     S
Cu343  Cu344   2.650   .     S
